<?xml version="1.0" encoding="UTF-8"?>

<!-- generated on 2022-08-29 18:49:28 by Eclipse SUMO netedit Version 1.13.0
<configuration xmlns:xsi="http://www.w3.org/2001/XMLSchema-instance" xsi:noNamespaceSchemaLocation="http://sumo.dlr.de/xsd/netconvertConfiguration.xsd">

    <input>
        <sumo-net-file value="/Users/gankutsuou/Downloads/map.net.xml"/>
    </input>

    <output>
        <output-file value="/Users/gankutsuou/Downloads/map.net.xml"/>
    </output>

    <processing>
        <geometry.min-radius.fix.railways value="false"/>
        <geometry.max-grade.fix value="false"/>
        <offset.disable-normalization value="true"/>
        <lefthand value="false"/>
    </processing>

    <junctions>
        <no-turnarounds value="true"/>
        <junctions.corner-detail value="5"/>
        <junctions.limit-turn-speed value="5.5"/>
        <rectangular-lane-cut value="false"/>
    </junctions>

    <pedestrian>
        <walkingareas value="false"/>
    </pedestrian>

    <report>
        <aggregate-warnings value="5"/>
    </report>

</configuration>
-->

<net version="1.9" junctionCornerDetail="5" limitTurnSpeed="5.50" xmlns:xsi="http://www.w3.org/2001/XMLSchema-instance" xsi:noNamespaceSchemaLocation="http://sumo.dlr.de/xsd/net_file.xsd">

    <location netOffset="-233310.66,-3374332.14" convBoundary="34.69,0.00,9418.33,18702.01" origBoundary="114.217414,30.473477,114.331353,30.640243" projParameter="+proj=utm +zone=50 +ellps=WGS84 +datum=WGS84 +units=m +no_defs"/>

    <type id="highway.bridleway" priority="1" numLanes="1" speed="2.78" allow="pedestrian" oneway="1" width="2.00"/>
    <type id="highway.bus_guideway" priority="1" numLanes="1" speed="27.78" allow="bus" oneway="1"/>
    <type id="highway.cycleway" priority="1" numLanes="1" speed="8.33" allow="bicycle" oneway="0" width="1.00"/>
    <type id="highway.footway" priority="1" numLanes="1" speed="2.78" allow="pedestrian" oneway="1" width="2.00"/>
    <type id="highway.ford" priority="1" numLanes="1" speed="2.78" allow="army" oneway="0"/>
    <type id="highway.living_street" priority="2" numLanes="1" speed="2.78" disallow="tram rail_urban rail rail_electric rail_fast ship" oneway="0"/>
    <type id="highway.motorway" priority="14" numLanes="2" speed="39.44" allow="private emergency authority army vip passenger hov taxi bus coach delivery truck trailer motorcycle evehicle custom1 custom2" oneway="1"/>
    <type id="highway.motorway_link" priority="9" numLanes="1" speed="22.22" allow="private emergency authority army vip passenger hov taxi bus coach delivery truck trailer motorcycle evehicle custom1 custom2" oneway="1"/>
    <type id="highway.path" priority="1" numLanes="1" speed="2.78" allow="pedestrian bicycle" oneway="0" width="2.00"/>
    <type id="highway.pedestrian" priority="1" numLanes="1" speed="2.78" allow="pedestrian" oneway="1" width="2.00"/>
    <type id="highway.primary" priority="12" numLanes="2" speed="27.78" disallow="tram rail_urban rail rail_electric rail_fast ship" oneway="0"/>
    <type id="highway.primary_link" priority="7" numLanes="1" speed="22.22" disallow="tram rail_urban rail rail_electric rail_fast ship" oneway="0"/>
    <type id="highway.raceway" priority="15" numLanes="2" speed="83.33" allow="vip" oneway="0"/>
    <type id="highway.residential" priority="3" numLanes="1" speed="13.89" disallow="tram rail_urban rail rail_electric rail_fast ship" oneway="0"/>
    <type id="highway.secondary" priority="11" numLanes="1" speed="27.78" disallow="tram rail_urban rail rail_electric rail_fast ship" oneway="0"/>
    <type id="highway.secondary_link" priority="6" numLanes="1" speed="22.22" disallow="tram rail_urban rail rail_electric rail_fast ship" oneway="0"/>
    <type id="highway.service" priority="1" numLanes="1" speed="5.56" allow="pedestrian delivery bicycle" oneway="0"/>
    <type id="highway.stairs" priority="1" numLanes="1" speed="1.39" allow="pedestrian" oneway="1" width="2.00"/>
    <type id="highway.step" priority="1" numLanes="1" speed="1.39" allow="pedestrian" oneway="1" width="2.00"/>
    <type id="highway.steps" priority="1" numLanes="1" speed="1.39" allow="pedestrian" oneway="1" width="2.00"/>
    <type id="highway.tertiary" priority="10" numLanes="1" speed="22.22" disallow="tram rail_urban rail rail_electric rail_fast ship" oneway="0"/>
    <type id="highway.tertiary_link" priority="5" numLanes="1" speed="22.22" disallow="tram rail_urban rail rail_electric rail_fast ship" oneway="0"/>
    <type id="highway.track" priority="1" numLanes="1" speed="5.56" allow="pedestrian motorcycle moped bicycle" oneway="0"/>
    <type id="highway.trunk" priority="13" numLanes="2" speed="27.78" disallow="pedestrian bicycle tram rail_urban rail rail_electric rail_fast ship" oneway="0"/>
    <type id="highway.trunk_link" priority="8" numLanes="1" speed="22.22" disallow="pedestrian bicycle tram rail_urban rail rail_electric rail_fast ship" oneway="0"/>
    <type id="highway.unclassified" priority="4" numLanes="1" speed="13.89" disallow="tram rail_urban rail rail_electric rail_fast ship" oneway="0"/>
    <type id="highway.unsurfaced" priority="1" numLanes="1" speed="8.33" disallow="tram rail_urban rail rail_electric rail_fast ship" oneway="0"/>
    <type id="railway.highspeed" priority="21" numLanes="1" speed="69.44" allow="rail_fast" oneway="1"/>
    <type id="railway.light_rail" priority="19" numLanes="1" speed="27.78" allow="rail_urban" oneway="1"/>
    <type id="railway.preserved" priority="16" numLanes="1" speed="27.78" allow="rail" oneway="1"/>
    <type id="railway.rail" priority="20" numLanes="1" speed="44.44" allow="rail" oneway="1"/>
    <type id="railway.subway" priority="18" numLanes="1" speed="27.78" allow="rail_urban" oneway="1"/>
    <type id="railway.tram" priority="17" numLanes="1" speed="13.89" allow="tram" oneway="1"/>

    <edge id=":1218886556_0" function="internal">
        <lane id=":1218886556_0_0" index="0" disallow="tram rail_urban rail rail_electric rail_fast ship" speed="27.78" length="0.30" shape="8826.17,8026.25 8825.88,8026.23"/>
        <lane id=":1218886556_0_1" index="1" disallow="tram rail_urban rail rail_electric rail_fast ship" speed="27.78" length="0.30" shape="8826.32,8023.05 8826.02,8023.03"/>
    </edge>
    <edge id=":1218886677_0" function="internal">
        <lane id=":1218886677_0_0" index="0" disallow="tram rail_urban rail rail_electric rail_fast ship" speed="25.00" length="16.34" shape="8958.70,8067.40 8956.84,8070.46 8955.02,8073.50 8953.51,8077.23 8952.56,8082.34"/>
    </edge>
    <edge id=":1218886677_1" function="internal">
        <lane id=":1218886677_1_0" index="0" disallow="tram rail_urban rail rail_electric rail_fast ship" speed="27.78" length="16.41" shape="8954.20,8066.02 8952.56,8082.34"/>
        <lane id=":1218886677_1_1" index="1" disallow="tram rail_urban rail rail_electric rail_fast ship" speed="27.78" length="16.41" shape="8951.01,8065.70 8949.38,8082.04"/>
    </edge>
    <edge id=":1218886728_0" function="internal">
        <lane id=":1218886728_0_0" index="0" disallow="tram rail_urban rail rail_electric rail_fast ship" speed="19.58" length="14.26" shape="8938.39,7986.19 8940.64,7983.63 8942.62,7981.28 8944.29,7978.37 8945.59,7974.14"/>
    </edge>
    <edge id=":1218886728_1" function="internal">
        <lane id=":1218886728_1_0" index="0" disallow="tram rail_urban rail rail_electric rail_fast ship" speed="27.78" length="14.34" shape="8943.03,7988.30 8945.59,7974.14"/>
        <lane id=":1218886728_1_1" index="1" disallow="tram rail_urban rail rail_electric rail_fast ship" speed="27.78" length="14.34" shape="8946.18,7988.86 8948.72,7974.81"/>
    </edge>
    <edge id=":1218886842_0" function="internal">
        <lane id=":1218886842_0_0" index="0" disallow="tram rail_urban rail rail_electric rail_fast ship" speed="22.01" length="13.94" shape="8930.50,8073.46 8930.40,8069.13 8929.69,8065.95 8928.57,8063.18 8927.25,8060.09"/>
    </edge>
    <edge id=":1218886842_1" function="internal">
        <lane id=":1218886842_1_0" index="0" disallow="tram rail_urban rail rail_electric rail_fast ship" speed="27.78" length="13.95" shape="8930.50,8073.46 8932.30,8059.49"/>
        <lane id=":1218886842_1_1" index="1" disallow="tram rail_urban rail rail_electric rail_fast ship" speed="27.78" length="13.95" shape="8933.70,8073.63 8935.47,8059.91"/>
    </edge>
    <edge id=":1218886891_0" function="internal">
        <lane id=":1218886891_0_0" index="0" disallow="tram rail_urban rail rail_electric rail_fast ship" speed="6.27" length="9.04" shape="8961.57,8014.11 8961.27,8016.61 8961.88,8018.52 8963.39,8019.84 8965.80,8020.56"/>
        <lane id=":1218886891_0_1" index="1" disallow="tram rail_urban rail rail_electric rail_fast ship" speed="7.11" length="11.94" shape="8961.57,8014.11 8960.93,8017.98 8961.34,8020.87 8962.81,8022.79 8965.33,8023.73"/>
    </edge>
    <edge id=":1218886891_2" function="internal">
        <lane id=":1218886891_2_0" index="0" disallow="tram rail_urban rail rail_electric rail_fast ship" speed="27.78" length="18.81" shape="8961.57,8014.11 8960.13,8019.44 8959.22,8023.11 8958.52,8026.83 8957.75,8032.29"/>
        <lane id=":1218886891_2_1" index="1" disallow="tram rail_urban rail rail_electric rail_fast ship" speed="27.78" length="18.81" shape="8958.48,8013.28 8957.01,8018.73 8956.07,8022.48 8955.37,8026.28 8954.58,8031.87"/>
    </edge>
    <edge id=":1218886891_4" function="internal">
        <lane id=":1218886891_4_0" index="0" disallow="tram rail_urban rail rail_electric rail_fast ship" speed="27.78" length="15.31" shape="8950.43,8018.57 8965.80,8020.56"/>
        <lane id=":1218886891_4_1" index="1" disallow="tram rail_urban rail rail_electric rail_fast ship" speed="27.78" length="15.31" shape="8950.09,8021.75 8965.33,8023.73"/>
        <lane id=":1218886891_4_2" index="2" disallow="tram rail_urban rail rail_electric rail_fast ship" speed="27.78" length="15.31" shape="8949.74,8024.93 8964.86,8026.89"/>
        <lane id=":1218886891_4_3" index="3" disallow="tram rail_urban rail rail_electric rail_fast ship" speed="27.78" length="15.31" shape="8949.39,8028.11 8964.39,8030.06"/>
    </edge>
    <edge id=":1218886891_8" function="internal">
        <lane id=":1218886891_8_0" index="0" disallow="tram rail_urban rail rail_electric rail_fast ship" speed="5.83" length="7.17" shape="8949.39,8028.11 8951.82,8028.58 8953.49,8029.36 8954.41,8030.46 8954.58,8031.87"/>
    </edge>
    <edge id=":1218886895_0" function="internal">
        <lane id=":1218886895_0_0" index="0" disallow="tram rail_urban rail rail_electric rail_fast ship" speed="27.78" length="8.40" shape="8999.67,8025.58 9001.89,8026.42 9003.17,8027.69 9004.47,8028.90 9006.70,8029.55"/>
        <lane id=":1218886895_0_1" index="1" disallow="tram rail_urban rail rail_electric rail_fast ship" speed="27.78" length="8.40" shape="8999.20,8028.75 9001.49,8029.59 9002.84,8030.88 9004.19,8032.09 9006.50,8032.74"/>
    </edge>
    <edge id=":1218886895_2" function="internal">
        <lane id=":1218886895_2_0" index="0" disallow="tram rail_urban rail rail_electric rail_fast ship" speed="25.00" length="7.85" shape="8998.96,8030.40 9001.25,8030.45 9002.82,8030.07 9004.40,8029.65 9006.70,8029.55"/>
    </edge>
    <edge id=":1218886898_0" function="internal">
        <lane id=":1218886898_0_0" index="0" disallow="tram rail_urban rail rail_electric rail_fast ship" speed="27.78" length="0.30" shape="8350.97,8105.17 8350.69,8105.25"/>
        <lane id=":1218886898_0_1" index="1" disallow="tram rail_urban rail rail_electric rail_fast ship" speed="27.78" length="0.30" shape="8350.10,8102.09 8349.81,8102.17"/>
    </edge>
    <edge id=":1218887024_0" function="internal">
        <lane id=":1218887024_0_0" index="0" disallow="tram rail_urban rail rail_electric rail_fast ship" speed="16.05" length="13.50" shape="8967.81,7992.21 8967.52,7996.40 8967.75,7999.54 8968.51,8002.28 8969.84,8005.30"/>
    </edge>
    <edge id=":1218887024_1" function="internal">
        <lane id=":1218887024_1_0" index="0" disallow="tram rail_urban rail rail_electric rail_fast ship" speed="27.78" length="13.52" shape="8967.81,7992.21 8967.14,7996.21 8966.26,7998.86 8965.18,8001.48 8963.92,8005.37"/>
        <lane id=":1218887024_1_1" index="1" disallow="tram rail_urban rail rail_electric rail_fast ship" speed="27.78" length="13.52" shape="8964.62,7991.87 8963.98,7995.73 8963.11,7998.28 8962.05,8000.79 8960.83,8004.54"/>
    </edge>
    <edge id=":4516243257_0" function="internal">
        <lane id=":4516243257_0_0" index="0" disallow="tram rail_urban rail rail_electric rail_fast ship" speed="15.27" length="22.76" shape="8999.63,8041.05 8991.81,8040.85 8985.52,8041.35 8980.76,8042.52 8977.54,8044.38"/>
    </edge>
    <edge id=":4516243257_1" function="internal">
        <lane id=":4516243257_1_0" index="0" disallow="tram rail_urban rail rail_electric rail_fast ship" speed="8.33" length="22.60" shape="8999.63,8041.05 8977.07,8039.83"/>
        <lane id=":4516243257_1_1" index="1" disallow="tram rail_urban rail rail_electric rail_fast ship" speed="8.33" length="22.60" shape="8999.83,8037.85 8977.25,8036.64"/>
    </edge>
    <edge id=":4516243336_0" function="internal">
        <lane id=":4516243336_0_0" index="0" disallow="tram rail_urban rail rail_electric rail_fast ship" speed="25.00" length="24.12" shape="8916.25,8041.49 8912.61,8039.04 8907.36,8036.85 8900.99,8034.75 8893.99,8032.57"/>
    </edge>
    <edge id=":4516243336_1" function="internal">
        <lane id=":4516243336_1_0" index="0" disallow="tram rail_urban rail rail_electric rail_fast ship" speed="18.05" length="24.02" shape="8918.07,8035.72 8911.45,8035.28 8905.87,8034.94 8900.38,8034.21 8893.99,8032.57"/>
        <lane id=":4516243336_1_1" index="1" disallow="tram rail_urban rail rail_electric rail_fast ship" speed="18.05" length="24.02" shape="8918.36,8032.53 8911.84,8032.11 8906.50,8031.82 8901.24,8031.14 8894.96,8029.52"/>
    </edge>
    <edge id=":4516243372_0" function="internal">
        <lane id=":4516243372_0_0" index="0" disallow="tram rail_urban rail rail_electric rail_fast ship" speed="27.78" length="0.30" shape="8695.95,8008.32 8696.25,8008.34"/>
        <lane id=":4516243372_0_1" index="1" disallow="tram rail_urban rail rail_electric rail_fast ship" speed="27.78" length="0.30" shape="8695.77,8011.52 8696.07,8011.54"/>
    </edge>
    <edge id=":4516243425_0" function="internal">
        <lane id=":4516243425_0_0" index="0" disallow="tram rail_urban rail rail_electric rail_fast ship" speed="27.78" length="4.64" shape="8906.32,8021.43 8907.64,8021.24 8908.50,8020.75 8909.36,8020.27 8910.68,8020.12"/>
    </edge>
    <edge id=":4516243433_0" function="internal">
        <lane id=":4516243433_0_0" index="0" disallow="tram rail_urban rail rail_electric rail_fast ship" speed="6.69" length="9.27" shape="8962.68,8039.05 8960.14,8039.26 8958.24,8040.20 8956.98,8041.89 8956.38,8044.31"/>
    </edge>
    <edge id=":4516243433_1" function="internal">
        <lane id=":4516243433_1_0" index="0" disallow="tram rail_urban rail rail_electric rail_fast ship" speed="8.33" length="14.41" shape="8962.68,8039.05 8948.28,8038.18"/>
        <lane id=":4516243433_1_1" index="1" disallow="tram rail_urban rail rail_electric rail_fast ship" speed="8.33" length="14.41" shape="8962.86,8035.85 8948.49,8034.98"/>
    </edge>
    <edge id=":4516243433_3" function="internal">
        <lane id=":4516243433_3_0" index="0" disallow="tram rail_urban rail rail_electric rail_fast ship" speed="27.78" length="11.95" shape="8957.72,8032.49 8956.38,8044.31"/>
        <lane id=":4516243433_3_1" index="1" disallow="tram rail_urban rail rail_electric rail_fast ship" speed="27.78" length="11.95" shape="8954.55,8032.07 8953.19,8043.99"/>
    </edge>
    <edge id=":4516243433_5" function="internal">
        <lane id=":4516243433_5_0" index="0" disallow="tram rail_urban rail rail_electric rail_fast ship" speed="6.11" length="7.44" shape="8954.55,8032.07 8954.01,8033.48 8952.82,8034.44 8950.98,8034.94 8948.49,8034.98"/>
    </edge>
    <edge id=":4516243495_0" function="internal">
        <lane id=":4516243495_0_0" index="0" disallow="tram rail_urban rail rail_electric rail_fast ship" speed="25.00" length="14.67" shape="8895.10,8017.72 8899.70,8017.15 8903.08,8016.20 8905.97,8015.00 8909.10,8013.67"/>
    </edge>
    <edge id=":4516243495_1" function="internal">
        <lane id=":4516243495_1_0" index="0" disallow="tram rail_urban rail rail_electric rail_fast ship" speed="27.78" length="11.01" shape="8895.10,8017.72 8898.41,8017.62 8900.67,8017.76 8902.94,8018.00 8906.25,8018.22"/>
        <lane id=":4516243495_1_1" index="1" disallow="tram rail_urban rail rail_electric rail_fast ship" speed="27.78" length="11.01" shape="8895.30,8020.91 8898.51,8020.82 8900.71,8020.96 8902.91,8021.20 8906.12,8021.42"/>
    </edge>
    <edge id=":4516243542_0" function="internal">
        <lane id=":4516243542_0_0" index="0" disallow="tram rail_urban rail rail_electric rail_fast ship" speed="8.33" length="14.70" shape="8944.31,8037.91 8929.62,8036.76"/>
        <lane id=":4516243542_0_1" index="1" disallow="tram rail_urban rail rail_electric rail_fast ship" speed="8.33" length="14.70" shape="8944.52,8034.72 8929.90,8033.58"/>
    </edge>
    <edge id=":4516243542_2" function="internal">
        <lane id=":4516243542_2_0" index="0" disallow="tram rail_urban rail rail_electric rail_fast ship" speed="5.94" length="7.61" shape="8944.52,8034.72 8942.06,8034.32 8940.38,8033.49 8939.45,8032.24 8939.28,8030.56"/>
    </edge>
    <edge id=":4516243542_3" function="internal">
        <lane id=":4516243542_3_0" index="0" disallow="tram rail_urban rail rail_electric rail_fast ship" speed="6.42" length="9.04" shape="8934.51,8042.89 8934.49,8040.40 8933.66,8038.55 8932.04,8037.34 8929.62,8036.76"/>
    </edge>
    <edge id=":4516243542_4" function="internal">
        <lane id=":4516243542_4_0" index="0" disallow="tram rail_urban rail rail_electric rail_fast ship" speed="27.78" length="12.83" shape="8934.51,8042.89 8936.10,8030.19"/>
        <lane id=":4516243542_4_1" index="1" disallow="tram rail_urban rail rail_electric rail_fast ship" speed="27.78" length="12.83" shape="8937.69,8043.32 8939.28,8030.56"/>
    </edge>
    <edge id=":617564354_0" function="internal">
        <lane id=":617564354_0_0" index="0" disallow="tram rail_urban rail rail_electric rail_fast ship" speed="8.05" length="13.23" shape="8931.79,8021.62 8934.20,8021.15 8936.18,8019.34 8937.73,8016.21 8938.86,8011.76"/>
    </edge>
    <edge id=":617564354_1" function="internal">
        <lane id=":617564354_1_0" index="0" disallow="tram rail_urban rail rail_electric rail_fast ship" speed="27.78" length="14.71" shape="8931.79,8021.62 8935.12,8021.11 8938.15,8019.70 8941.64,8018.38 8946.36,8018.12"/>
        <lane id=":617564354_1_1" index="1" disallow="tram rail_urban rail rail_electric rail_fast ship" speed="27.78" length="14.71" shape="8931.79,8021.62 8935.12,8021.61 8938.12,8021.31 8941.50,8021.08 8946.01,8021.31"/>
    </edge>
    <edge id=":617564354_3" function="internal">
        <lane id=":617564354_3_0" index="0" disallow="tram rail_urban rail rail_electric rail_fast ship" speed="27.78" length="18.34" shape="8936.13,8029.99 8938.86,8011.76"/>
        <lane id=":617564354_3_1" index="1" disallow="tram rail_urban rail rail_electric rail_fast ship" speed="27.78" length="18.34" shape="8939.31,8030.36 8942.01,8012.32"/>
    </edge>
    <edge id=":617564354_5" function="internal">
        <lane id=":617564354_5_0" index="0" disallow="tram rail_urban rail rail_electric rail_fast ship" speed="6.78" length="9.84" shape="8939.31,8030.36 8939.98,8027.56 8941.27,8025.65 8943.16,8024.62 8945.66,8024.49"/>
        <lane id=":617564354_5_1" index="1" disallow="tram rail_urban rail rail_electric rail_fast ship" speed="5.95" length="7.36" shape="8939.31,8030.36 8939.82,8028.95 8941.00,8028.03 8942.83,8027.61 8945.31,8027.67"/>
    </edge>

    <edge id="105855309" from="1218886842" to="4516243336" priority="7" type="highway.primary_link" spreadType="center" shape="8932.14,8072.77 8922.45,8047.63 8910.32,8035.62 8898.62,8032.36">
        <lane id="105855309_0" index="0" disallow="tram rail_urban rail rail_electric rail_fast ship" speed="22.22" length="22.07" shape="8927.25,8060.09 8922.45,8047.63 8916.25,8041.49"/>
    </edge>
    <edge id="105855315" from="1218887024" to="1218886895" priority="7" type="highway.primary_link" spreadType="center" shape="8966.46,7989.74 8968.08,8001.65 8973.11,8012.09 8980.56,8022.16 8985.88,8028.69 9002.86,8030.91">
        <lane id="105855315_0" index="0" disallow="tram rail_urban rail rail_electric rail_fast ship" speed="22.22" length="41.67" shape="8969.84,8005.30 8973.11,8012.09 8980.56,8022.16 8985.88,8028.69 8998.96,8030.40"/>
    </edge>
    <edge id="231778171#0" from="4516243336" to="1218886556" priority="11" type="highway.secondary" spreadType="center" shape="8898.62,8032.36 8882.61,8027.29 8826.10,8024.64">
        <lane id="231778171#0_0" index="0" disallow="tram rail_urban rail rail_electric rail_fast ship" speed="27.78" length="68.87" shape="8893.99,8032.57 8882.33,8028.88 8826.17,8026.25"/>
        <lane id="231778171#0_1" index="1" disallow="tram rail_urban rail rail_electric rail_fast ship" speed="27.78" length="68.87" shape="8894.96,8029.52 8882.89,8025.70 8826.32,8023.05"/>
    </edge>
    <edge id="231778171#1" from="1218886556" to="1218886898" priority="11" type="highway.secondary" spreadType="center" shape="8826.10,8024.64 8687.94,8018.23 8659.95,8020.29 8575.57,8040.28 8350.39,8103.67">
        <lane id="231778171#1_0" index="0" disallow="tram rail_urban rail rail_electric rail_fast ship" speed="27.78" length="486.72" shape="8825.88,8026.23 8687.96,8019.83 8660.19,8021.88 8575.97,8041.83 8350.97,8105.17"/>
        <lane id="231778171#1_1" index="1" disallow="tram rail_urban rail rail_electric rail_fast ship" speed="27.78" length="486.72" shape="8826.02,8023.03 8687.92,8016.63 8659.71,8018.70 8575.17,8038.73 8350.10,8102.09"/>
    </edge>
    <edge id="231778171#2" from="1218886898" to="1215728279" priority="11" type="highway.secondary" spreadType="center" shape="8350.39,8103.67 8023.87,8196.92 8010.81,8204.42 7995.59,8208.24 7935.16,8225.06 7914.84,8227.89 7863.03,8239.50 7647.50,8274.24 7512.78,8297.36 7418.03,8312.80 7371.32,8320.19 7297.88,8325.57 7280.60,8327.44 7127.76,8364.57 7093.60,8373.49">
        <lane id="231778171#2_0" index="0" disallow="tram rail_urban rail rail_electric rail_fast ship" speed="27.78" length="1288.42" shape="8350.69,8105.25 8024.50,8198.40 8011.41,8205.92 7996.00,8209.79 7935.49,8226.63 7915.13,8229.47 7863.33,8241.07 7647.76,8275.82 7513.04,8298.94 7418.28,8314.38 7371.50,8321.78 7298.02,8327.16 7280.88,8329.02 7128.15,8366.12 7094.00,8375.04"/>
        <lane id="231778171#2_1" index="1" disallow="tram rail_urban rail rail_electric rail_fast ship" speed="27.78" length="1288.42" shape="8349.81,8102.17 8023.24,8195.44 8010.21,8202.92 7995.18,8206.69 7934.83,8223.49 7914.55,8226.31 7862.73,8237.93 7647.24,8272.66 7512.52,8295.78 7417.78,8311.22 7371.14,8318.60 7297.74,8323.98 7280.32,8325.86 7127.37,8363.02 7093.20,8371.94"/>
    </edge>
    <edge id="231783463" from="1215728050" to="1218886842" priority="12" type="highway.primary" spreadType="center" shape="8909.11,8316.88 8926.16,8184.42 8932.14,8072.77">
        <lane id="231783463_0" index="0" disallow="tram rail_urban rail rail_electric rail_fast ship" speed="27.78" length="244.59" shape="8907.52,8316.68 8924.57,8184.27 8930.50,8073.46"/>
        <lane id="231783463_1" index="1" disallow="tram rail_urban rail rail_electric rail_fast ship" speed="27.78" length="244.59" shape="8910.70,8317.08 8927.75,8184.57 8933.70,8073.63"/>
    </edge>
    <edge id="231800496" from="1218886677" to="2401122541" priority="12" type="highway.primary" spreadType="center" shape="8951.02,8081.64 8945.95,8135.62 8934.38,8236.49 8924.35,8322.14 8911.33,8445.11 8892.35,8599.32 8868.06,8790.01 8863.68,8830.82">
        <lane id="231800496_0" index="0" disallow="tram rail_urban rail rail_electric rail_fast ship" speed="27.78" length="753.74" shape="8952.56,8082.34 8947.54,8135.79 8935.97,8236.67 8925.94,8322.32 8912.92,8445.29 8893.94,8599.52 8869.65,8790.20 8865.27,8830.99"/>
        <lane id="231800496_1" index="1" disallow="tram rail_urban rail rail_electric rail_fast ship" speed="27.78" length="753.74" shape="8949.38,8082.04 8944.36,8135.45 8932.79,8236.31 8922.76,8321.96 8909.74,8444.93 8890.76,8599.12 8866.47,8789.82 8862.09,8830.65"/>
    </edge>
    <edge id="231800523" from="4516243257" to="1218886677" priority="7" type="highway.primary_link" spreadType="center" shape="9002.31,8039.61 8978.25,8043.74 8965.90,8054.79 8959.10,8066.65 8951.02,8081.64">
        <lane id="231800523_0" index="0" disallow="tram rail_urban rail rail_electric rail_fast ship" speed="22.22" length="30.14" shape="8977.54,8044.38 8965.90,8054.79 8959.10,8066.65 8958.70,8067.40"/>
    </edge>
    <edge id="231800541" from="1218886891" to="1218886895" priority="11" type="highway.secondary" spreadType="center">
        <lane id="231800541_0" index="0" disallow="tram rail_urban rail rail_electric rail_fast ship" speed="27.78" length="34.24" shape="8965.80,8020.56 8999.67,8025.58"/>
        <lane id="231800541_1" index="1" disallow="tram rail_urban rail rail_electric rail_fast ship" speed="27.78" length="34.24" shape="8965.33,8023.73 8999.20,8028.75"/>
        <lane id="231800541_2" index="2" disallow="tram rail_urban rail rail_electric rail_fast ship" speed="27.78" length="34.24" shape="8964.86,8026.89 8998.73,8031.91"/>
        <lane id="231800541_3" index="3" disallow="tram rail_urban rail rail_electric rail_fast ship" speed="27.78" length="34.24" shape="8964.39,8030.06 8998.26,8035.08"/>
    </edge>
    <edge id="233471900#0" from="1218886891" to="4516243433" priority="12" type="highway.primary" spreadType="center">
        <lane id="233471900#0_0" index="0" disallow="tram rail_urban rail rail_electric rail_fast ship" speed="27.78" length="0.20" shape="8957.75,8032.29 8957.72,8032.49"/>
        <lane id="233471900#0_1" index="1" disallow="tram rail_urban rail rail_electric rail_fast ship" speed="27.78" length="0.20" shape="8954.58,8031.87 8954.55,8032.07"/>
    </edge>
    <edge id="233471900#1" from="4516243433" to="1218886677" priority="12" type="highway.primary" spreadType="center">
        <lane id="233471900#1_0" index="0" disallow="tram rail_urban rail rail_electric rail_fast ship" speed="27.78" length="21.82" shape="8956.38,8044.31 8954.20,8066.02"/>
        <lane id="233471900#1_1" index="1" disallow="tram rail_urban rail rail_electric rail_fast ship" speed="27.78" length="21.82" shape="8953.19,8043.99 8951.01,8065.70"/>
    </edge>
    <edge id="233471901#0" from="1218886842" to="4516243542" priority="12" type="highway.primary" spreadType="center">
        <lane id="233471901#0_0" index="0" disallow="tram rail_urban rail rail_electric rail_fast ship" speed="27.78" length="16.74" shape="8932.30,8059.49 8934.51,8042.89"/>
        <lane id="233471901#0_1" index="1" disallow="tram rail_urban rail rail_electric rail_fast ship" speed="27.78" length="16.74" shape="8935.47,8059.91 8937.69,8043.32"/>
    </edge>
    <edge id="233471901#1" from="4516243542" to="617564354" priority="12" type="highway.primary" spreadType="center">
        <lane id="233471901#1_0" index="0" disallow="tram rail_urban rail rail_electric rail_fast ship" speed="27.78" length="0.20" shape="8936.10,8030.19 8936.13,8029.99"/>
        <lane id="233471901#1_1" index="1" disallow="tram rail_urban rail rail_electric rail_fast ship" speed="27.78" length="0.20" shape="8939.28,8030.56 8939.31,8030.36"/>
    </edge>
    <edge id="233471901#2" from="617564354" to="1218886728" priority="12" type="highway.primary" spreadType="center">
        <lane id="233471901#2_0" index="0" disallow="tram rail_urban rail rail_electric rail_fast ship" speed="27.78" length="23.82" shape="8938.86,8011.76 8943.03,7988.30"/>
        <lane id="233471901#2_1" index="1" disallow="tram rail_urban rail rail_electric rail_fast ship" speed="27.78" length="23.82" shape="8942.01,8012.32 8946.18,7988.86"/>
    </edge>
    <edge id="233471902#0" from="1218886728" to="4742678881" priority="12" type="highway.primary" spreadType="center" shape="8946.90,7975.67 8959.62,7916.37 8960.92,7882.18">
        <lane id="233471902#0_0" index="0" disallow="tram rail_urban rail rail_electric rail_fast ship" speed="27.78" length="93.64" shape="8945.59,7974.14 8958.03,7916.17 8959.32,7882.12"/>
        <lane id="233471902#0_1" index="1" disallow="tram rail_urban rail rail_electric rail_fast ship" speed="27.78" length="93.64" shape="8948.72,7974.81 8961.21,7916.57 8962.52,7882.24"/>
    </edge>
    <edge id="233471906" from="4516243495" to="1218886728" priority="7" type="highway.primary_link" spreadType="center" shape="8894.42,8019.36 8912.45,8012.37 8930.59,7995.84 8946.90,7975.67">
        <lane id="233471906_0" index="0" disallow="tram rail_urban rail rail_electric rail_fast ship" speed="22.22" length="40.55" shape="8909.10,8013.67 8912.45,8012.37 8930.59,7995.84 8938.39,7986.19"/>
    </edge>
    <edge id="233471914" from="617564354" to="1218886891" priority="11" type="highway.secondary" spreadType="center">
        <lane id="233471914_0" index="0" disallow="tram rail_urban rail rail_electric rail_fast ship" speed="27.78" length="4.10" shape="8946.36,8018.12 8950.43,8018.57"/>
        <lane id="233471914_1" index="1" disallow="tram rail_urban rail rail_electric rail_fast ship" speed="27.78" length="4.10" shape="8946.01,8021.31 8950.09,8021.75"/>
        <lane id="233471914_2" index="2" disallow="tram rail_urban rail rail_electric rail_fast ship" speed="27.78" length="4.10" shape="8945.66,8024.49 8949.74,8024.93"/>
        <lane id="233471914_3" index="3" disallow="tram rail_urban rail rail_electric rail_fast ship" speed="27.78" length="4.10" shape="8945.31,8027.67 8949.39,8028.11"/>
    </edge>