<routes>
    <vType id="type1" accel="0.8" decel="4.5" sigma="0.5" length="5" maxSpeed="70"/>

    <vehicle id="veh0" type="type1" depart="0" color="1,0,0">
      <route edges="455186818#4 455186818#5 455186818#6 455186818#7 231778171#0 231778171#1"/>
    </vehicle>

    <vehicle id="veh1" type="type1" depart="20" color="1,0,0">
      <route edges="481329676#2 481329676#3 233471900#0 233471900#1 231800496"/>
    </vehicle>

    <vehicle id="veh2" type="type1" depart="30" color="1,0,0">
      <route edges="481329676#2 105855315 99447614#0"/>
    </vehicle>

</routes>